Circuit: * D:\Projects\8-StepperBoard\Misc\ProtectionCircuit_Simulation.asc

.OP point found by inspection.

Date: Mon Nov 20 16:15:11 2023
Total elapsed time: 0.076 seconds.

tnom = 27
temp = 27
method = modified trap
totiter = 4539
traniter = 4539
tranpoints = 1716
accept = 1491
rejected = 225
matrix size = 9
fillins = 4
solver = Normal
Avg thread counts: 1.1/1.4/1.3/1.1
Matrix Compiler1:      39 opcodes  0.1/[0.1]/0.1
Matrix Compiler2: off  [0.1]/0.1/0.1

